
**** 05/22/23 10:59:24 ****** PSpice 17.2.0 (March 2016) ****** ID# 0 ********

 ** Profile: "SCHEMATIC1-DCReg"  [ c:\cadence\labhw\projectfinal\voltagereg-pspicefiles\schematic1\dcreg.sim ] 


 ****     CIRCUIT DESCRIPTION


******************************************************************************




** Creating circuit file "DCReg.cir" 
** WARNING: THIS AUTOMATICALLY GENERATED FILE MAY BE OVERWRITTEN BY SUBSEQUENT SIMULATIONS

*Libraries: 
* Profile Libraries :
* Local Libraries :
* From [PSPICE NETLIST] section of C:\Users\legion\AppData\Roaming\SPB_Data\cdssetup\OrCAD_PSpice\17.2.0\PSpice.ini file:
.lib "nom.lib" 

*Analysis directives: 
.TRAN  0 .1 0 1m 
.WCASE TRAN V([N02522]) YMAX VARY BOTH  HI 
.OPTIONS ADVCONV
.PROBE64 V(alias(*)) I(alias(*)) W(alias(*)) D(alias(*)) NOISE(alias(*)) 
.INC "..\SCHEMATIC1.net" 



**** INCLUDING SCHEMATIC1.net ****
* source VOLTAGEREG
V_V1         N00120 0  
+SIN 0 310V 50Hz 0 0 0
R_R1         N00120 N00116 R_R1 1 TC=0,0 
.model        R_R1 RES R=1 DEV=5% TC1=0 TC2=0
X_TX1    N00116 0 N37066 N37475 SCHEMATIC1_TX1 
C_Cs         0 N02456 C_Cs 15m  TC=0,0 
.model        C_Cs CAP C=1 DEV=5% TC1=0 TC2=0 VC1=0 VC2=0
R_R2         N08006 N02456 R_R2 1k TC=0,0 
.model        R_R2 RES R=1 DEV=5% TC1=0 TC2=0
X_P         N08006 N02385 N016870 POT PARAMS: SET=0 VALUE=2k
R_R3         0 N016870 R_R3 1k TC=0,0 
.model        R_R3 RES R=1 DEV=5% TC1=0 TC2=0
R_Rp         N02522 N02582 R_Rp .14 TC=0,0 
.model        R_Rp RES R=1 DEV=1% TC1=0 TC2=0
R_Rl         0 N02522 R_Rl 100 TC=0,0 
.model        R_Rl RES R=1 DEV=5% TC1=0 TC2=0
X_U2         N02385 N02522 N02456 0 N02699 uA741
D_ZD         0 N08006 D1N4744A 
Q_Tp         N02699 N02582 N02522 Q2N3716
Q_T1         N02456 N02699 N02582 Q2N3716
D_D1         0 N37066 MUR110 
D_D4         N37475 N02456 MUR110 
D_D3         0 N37475 MUR110 
D_D2         N37066 N02456 MUR110 
.PARAM  r=0.5 set=0.5

.subckt SCHEMATIC1_TX1 1 2 3 4  
K_TX1         L1_TX1 L2_TX1 1
L1_TX1         1 2 4
L2_TX1         3 4 20m
.ends SCHEMATIC1_TX1

**** RESUMING DCReg.cir ****
.END

**** 05/22/23 10:59:24 ****** PSpice 17.2.0 (March 2016) ****** ID# 0 ********

 ** Profile: "SCHEMATIC1-DCReg"  [ c:\cadence\labhw\projectfinal\voltagereg-pspicefiles\schematic1\dcreg.sim ] 


 ****     Diode MODEL PARAMETERS


******************************************************************************




               D1N4744A        MUR110          X_U2.dx         X_U2.dy         
          IS    4.997600E-24    5.547000E-12  800.000000E-18  800.000000E-18 
           N    1.6405                                                       
         ISR    2.247333E-06  462.900000E-12                                 
          NR    2.89714                                                      
         IKF                     .01447                                      
          BV   15.048                                                        
         IBV     .1296                                                       
          RS     .21797          .0201          1               1.000000E-03 
          TT  605.000000E-09   61.660000E-09                                 
         CJO  260.000000E-12   67.210000E-12                   10.000000E-12 
          VJ     .46328          .75                                         
           M     .2466           .4934                                       
         XTI                    0                                            


**** 05/22/23 10:59:24 ****** PSpice 17.2.0 (March 2016) ****** ID# 0 ********

 ** Profile: "SCHEMATIC1-DCReg"  [ c:\cadence\labhw\projectfinal\voltagereg-pspicefiles\schematic1\dcreg.sim ] 


 ****     BJT MODEL PARAMETERS


******************************************************************************




               Q2N3716         X_U2.qx         
               NPN             NPN             
       LEVEL    1               1            
          IS    2.045956E-12  800.000000E-18 
          BF  263.48           93.75         
          NF     .988408        1            
         VAF  156.2455                       
         IKF    9.89                         
         ISE    2.026827E-12                 
          NE    1.234354                     
          BR    7.088558        1            
          NR     .97022         1            
         VAR   73.803                        
         IKR    1.8                          
         ISC    1.494404E-09                 
          NC    1.515306                     
         ISS    0               0            
          RB   16.918                        
         RBM     .0208                       
         IRB     .0132                       
          RE    2.731568E-03    0            
          RC     .189           0            
         CJE  825.767300E-12    0            
         VJE     .626702         .75         
         MJE     .383789                     
         CJC  412.487100E-12    0            
         VJC     .427344         .75         
         MJC     .40638          .33         
        XCJC    1               1            
         CJS    0               0            
         VJS     .75             .75         
          FC     .844775                     
          TF   24.140000E-09                 
         XTF    1.833                        
         VTF    2                            
         ITF   13                            
         PTF   10.80642                      
          TR  366.657000E-09                 
         XTB    1.7695                       
         XTI     .415                        
          KF    0               0            
          AF    1               1            
          CN    2.42            2.42         
           D     .87             .87         


**** 05/22/23 10:59:24 ****** PSpice 17.2.0 (March 2016) ****** ID# 0 ********

 ** Profile: "SCHEMATIC1-DCReg"  [ c:\cadence\labhw\projectfinal\voltagereg-pspicefiles\schematic1\dcreg.sim ] 


 ****     Resistor MODEL PARAMETERS


******************************************************************************




               R_R1            R_R2            R_R3            R_Rp            
           R    1               1               1               1            


               R_Rl            
           R    1            


**** 05/22/23 10:59:24 ****** PSpice 17.2.0 (March 2016) ****** ID# 0 ********

 ** Profile: "SCHEMATIC1-DCReg"  [ c:\cadence\labhw\projectfinal\voltagereg-pspicefiles\schematic1\dcreg.sim ] 


 ****     Capacitor MODEL PARAMETERS


******************************************************************************




               C_Cs            
           C    1            


**** 05/22/23 10:59:24 ****** PSpice 17.2.0 (March 2016) ****** ID# 0 ********

 ** Profile: "SCHEMATIC1-DCReg"  [ c:\cadence\labhw\projectfinal\voltagereg-pspicefiles\schematic1\dcreg.sim ] 


 ****     INITIAL TRANSIENT SOLUTION       TEMPERATURE =   27.000 DEG C

                      SENSITIVITY NOMINAL

******************************************************************************



 NODE   VOLTAGE     NODE   VOLTAGE     NODE   VOLTAGE     NODE   VOLTAGE


(N00116)    0.0000 (N00120)    0.0000 (N02385)     .2615 (N02456)    1.0489     

(N02522)     .2600 (N02582)     .2604 (N02699)     .7968 (N08006)     .7845     

(N37066)     .5245 (N37475)     .5245 (X_U2.6)    -.0273 (X_U2.7)     .9437     

(X_U2.8)     .9437 (X_U2.9)    0.0000 (N016870)     .2615                       

(X_U2.10)    -.3469                   (X_U2.11)    1.0100                       

(X_U2.12)    1.0086                   (X_U2.13)    -.3333                       

(X_U2.14)    -.3328                   (X_U2.53)     .0489                       

(X_U2.54)    1.0000                   (X_U2.90)    2.9375                       

(X_U2.91)   40.0000                   (X_U2.92)  -40.0000                       

(X_U2.99)     .5245                   




    VOLTAGE SOURCE CURRENTS
    NAME         CURRENT

    V_V1         0.000E+00
    X_U2.vb     -2.729E-07
    X_U2.vc     -2.889E-03
    X_U2.ve     -2.220E-12
    X_U2.vlim    2.937E-03
    X_U2.vlp    -3.706E-11
    X_U2.vln    -4.294E-11

    TOTAL POWER DISSIPATION   2.89E-03  WATTS

Reducing minimum delta to make the circuit converge.
Reducing minimum delta to make the circuit converge.
Reducing minimum delta to make the circuit converge.
Reducing minimum delta to make the circuit converge.
Reducing minimum delta to make the circuit converge.
Reducing minimum delta to make the circuit converge.

ERROR(ORPSIM-15138): Convergence problem in Transient Analysis at Time =  .066.
         Time step =  288.8E-21, minimum allowable step size =  1.000E-18

  These voltages failed to converge:

    V(N02522)                 =    -2.900V  \     4.967V
    V(N00116)                 =    318.41V  \    300.06V
    V(N016870)                =     4.962V  \     4.967V
    V(N02582)                 =   370.74mV  \     4.974V
    V(N02699)                 =    -6.797V  \     5.592V
    V(N37066)                 =     18.15V  \     20.76V
    V(N37475)                 =     2.148V  \  -461.02mV
    V(N02385)                 =     4.962V  \     4.967V
    V(X_U2.6)                 =  -548.15KV  \   326.31uV
    V(X_U2.7)                 =  -548.15KV  \     5.620V
    V(X_U2.90)                =   -10.96MV  \   559.19mV
    V(X_U2.10)                =   415.66mV  \     4.360V
    V(X_U2.13)                =  -920.04mV  \     4.374V
    V(X_U2.14)                =     1.778V  \     4.374V
    V(X_U2.8)                 =  -548.15KV  \     5.620V

  These supply currents failed to converge:

    I(X_U2.egnd)              =    10.97KA  \  -559.63uA
    I(X_TX1.L1_TX1)           =    -18.06A  \   296.93mA
    I(X_TX1.L2_TX1)           =    259.57A  \  -304.13uA
    I(V_V1)                   =     18.06A  \  -296.93mA
    I(X_U2.vb)                =     2.334A  \    4.197nA
    I(X_U2.vc)                =    12.37KA  \   -69.47nA
    I(X_U2.ve)                =   -12.38KA  \   111.66nA
    I(X_U2.vlim)              =   -10.96KA  \   559.19uA
    I(X_U2.vlp)               =   -25.23uA  \   -39.45pA
    I(X_U2.vln)               =    25.23uA  \   -40.56pA
    I(X_U2.hlim)              =    21.93uA  \   -1.118pA

  These devices failed to converge:
    D_ZD      X_U2.dln  X_U2.fb   Q_Tp      Q_T1      X_U2.q1   X_U2.q2   

ERROR(ORPSIM-15659): Discontinuing simulation due to convergence problem



  Last node voltages tried were:

 NODE   VOLTAGE     NODE   VOLTAGE     NODE   VOLTAGE     NODE   VOLTAGE


(N00116)  318.4100 (N00120)  300.3600 (N02385)    4.9615 (N02456)   20.2950     

(N02522)   -2.8999 (N02582)     .3707 (N02699)   -6.7969 (N08006)   14.9000     

(N37066)   18.1480 (N37475)    2.1477 (X_U2.6)-548.2E+03 (X_U2.7)-548.1E+03     

(X_U2.8)-548.1E+03 (X_U2.9)    0.0000 (N016870)    4.9615                       

(X_U2.10)     .4157                   (X_U2.11)   20.2570                       

(X_U2.12)   20.2580                   (X_U2.13)    -.9200                       

(X_U2.14)    1.7778                   (X_U2.53)   19.2860                       

(X_U2.54)    1.0000                   (X_U2.90)-10.96E+06                       

(X_U2.91)   40.0000                   (X_U2.92)  -40.0000                       

(X_U2.99)   10.1480                   


**** Interrupt ****
**** Param: RELTOL = 0.001
**** Param: ABSTOL = 1e-012
**** Param: VNTOL = 1e-006
**** Param: GMIN = 1e-012
**** Param: TSTOP = 0.1
**** Param: TMAX = 0.001
**** Param: ITL1 = 150
**** Param: ITL2 = 20
**** Param: ITL4 = 100
**** Param: AutoConverge = 1
**** Param: AutoConverge.ITL1 = 1000
**** Param: AutoConverge.ITL2 = 1000
**** Param: AutoConverge.ITL4 = 1000
**** Param: AutoConverge.RELTOL = 0.05
**** Param: AutoConverge.ABSTOL = 0.001
**** Param: AutoConverge.VNTOL = 0.001
**** Param: AutoConverge.PIVTOL = 1e-010
**** Param: ADVCONV = 1
**** Param: Current_Simulation = 3
**** Param: METHOD = 0
**** Param: TRTOL = 7
**** Param: STEPGMIN = 0
**** Param: GMINSTEPS = 0
**** Param: ITL6 = 0
**** Param: NOSTEPDEP = 0
**** Param: PTRANSTEP = 0
**** Param: GMINSRC = 0
**** Param: PSEUDOTRAN = 0
**** Param: NOSTEPSRC = 0
Convergence problem in transient analysis at Time =  .066
         Time step =  577.6E-21, minimum allowable step size =  1.000E-18

  These voltages failed to converge:

    V(N02522)                 =     8.773V  \     4.967V
    V(N00116)                 =    318.41V  \    300.06V
    V(N02582)                 =     7.201V  \     4.974V
    V(N02699)                 =     11.59V  \     5.592V
    V(N37066)                 =     18.15V  \     20.76V
    V(N37475)                 =     2.148V  \  -461.02mV
    V(X_U2.6)                 =   215.09KV  \   326.31uV
    V(X_U2.7)                 =   215.10KV  \     5.620V
    V(X_U2.53)                =     19.32V  \     19.30V
    V(X_U2.90)                =    4.302MV  \   559.19mV
    V(X_U2.10)                =     6.269V  \     4.360V
    V(X_U2.13)                =     6.935V  \     4.374V
    V(X_U2.14)                =     5.630V  \     4.374V
    V(X_U2.8)                 =   215.10KV  \     5.620V

  These supply currents failed to converge:

    I(X_U2.egnd)              =   -4.304KA  \  -559.63uA
    I(X_TX1.L1_TX1)           =    -18.06A  \   296.93mA
    I(X_TX1.L2_TX1)           =    259.57A  \  -304.13uA
    I(V_V1)                   =     18.06A  \  -296.93mA
    I(X_U2.vb)                =    -1.127A  \    4.197nA
    I(X_U2.vc)                =   -5.960KA  \   -69.47nA
    I(X_U2.ve)                =    5.988KA  \   111.66nA
    I(X_U2.vlim)              =    4.302KA  \   559.19uA
    I(X_U2.vlp)               =    16.00uA  \   -39.45pA
    I(X_U2.vln)               =   -16.00uA  \   -40.56pA
    I(X_U2.hlim)              =   -8.604uA  \   -1.118pA

  These devices failed to converge:
    D_ZD      X_U2.dlp  X_U2.fb   Q_Tp      Q_T1      X_U2.q1   X_U2.q2   
Discontinuing simulation due to convergence problem



  Last node voltages tried were:

 NODE   VOLTAGE     NODE   VOLTAGE     NODE   VOLTAGE     NODE   VOLTAGE


(N00116)  318.4100 (N00120)  300.3600 (N02385)    4.9691 (N02456)   20.2950     

(N02522)    8.7731 (N02582)    7.2009 (N02699)   11.5860 (N08006)   14.9000     

(N37066)   18.1480 (N37475)    2.1477 (X_U2.6) 215.1E+03 (X_U2.7) 215.1E+03     

(X_U2.8) 215.1E+03 (X_U2.9)    0.0000 (N016870)    4.9691                       

(X_U2.10)    6.2686                   (X_U2.11)   20.2560                       

(X_U2.12)   20.2560                   (X_U2.13)    6.9350                       

(X_U2.14)    5.6295                   (X_U2.53)   19.3190                       

(X_U2.54)    1.0000                   (X_U2.90) 4.302E+06                       

(X_U2.91)   40.0000                   (X_U2.92)  -40.0000                       

(X_U2.99)   10.1480                   

Resuming Simulation with the following settings
ITL4 = 354
ABSTOL = 1.41e-009

Convergence problem in transient analysis at Time =  .066
         Time step =  577.6E-21, minimum allowable step size =  1.000E-18

  These voltages failed to converge:

    V(N02522)                 =     8.773V  \     4.967V
    V(N00116)                 =    318.41V  \    300.06V
    V(N02582)                 =     7.201V  \     4.974V
    V(N02699)                 =     11.59V  \     5.592V
    V(N37066)                 =     18.15V  \     20.76V
    V(N37475)                 =     2.148V  \  -461.02mV
    V(X_U2.6)                 =   215.09KV  \   326.31uV
    V(X_U2.7)                 =   215.10KV  \     5.620V
    V(X_U2.53)                =     19.32V  \     19.30V
    V(X_U2.90)                =    4.302MV  \   559.19mV
    V(X_U2.10)                =     6.269V  \     4.360V
    V(X_U2.13)                =     6.935V  \     4.374V
    V(X_U2.14)                =     5.630V  \     4.374V
    V(X_U2.8)                 =   215.10KV  \     5.620V

  These supply currents failed to converge:

    I(X_U2.egnd)              =   -4.304KA  \  -559.63uA
    I(X_TX1.L1_TX1)           =    -18.06A  \   296.93mA
    I(X_TX1.L2_TX1)           =    259.57A  \  -304.13uA
    I(V_V1)                   =     18.06A  \  -296.93mA
    I(X_U2.vb)                =    -1.127A  \    4.197nA
    I(X_U2.vc)                =   -5.960KA  \   -69.47nA
    I(X_U2.ve)                =    5.988KA  \   111.66nA
    I(X_U2.vlim)              =    4.302KA  \   559.19uA
    I(X_U2.vlp)               =    16.00uA  \   -39.45pA
    I(X_U2.vln)               =   -16.00uA  \   -40.56pA
    I(X_U2.hlim)              =   -8.604uA  \   -1.118pA

  These devices failed to converge:
    D_ZD      X_U2.dlp  X_U2.fb   Q_Tp      Q_T1      X_U2.q1   X_U2.q2   
Discontinuing simulation due to convergence problem



  Last node voltages tried were:

 NODE   VOLTAGE     NODE   VOLTAGE     NODE   VOLTAGE     NODE   VOLTAGE


(N00116)  318.4100 (N00120)  300.3600 (N02385)    4.9691 (N02456)   20.2950     

(N02522)    8.7731 (N02582)    7.2009 (N02699)   11.5860 (N08006)   14.9000     

(N37066)   18.1480 (N37475)    2.1477 (X_U2.6) 215.1E+03 (X_U2.7) 215.1E+03     

(X_U2.8) 215.1E+03 (X_U2.9)    0.0000 (N016870)    4.9691                       

(X_U2.10)    6.2686                   (X_U2.11)   20.2560                       

(X_U2.12)   20.2560                   (X_U2.13)    6.9350                       

(X_U2.14)    5.6295                   (X_U2.53)   19.3190                       

(X_U2.54)    1.0000                   (X_U2.90) 4.302E+06                       

(X_U2.91)   40.0000                   (X_U2.92)  -40.0000                       

(X_U2.99)   10.1480                   

Resuming Simulation with the following settings
ITL4 = 1000
ABSTOL = 2e-006

Convergence problem in transient analysis at Time =  .066
         Time step =  144.4E-21, minimum allowable step size =  1.000E-18

  These voltages failed to converge:

    V(N02522)                 =     24.47V  \     4.967V
    V(N00116)                 =    300.43V  \    300.06V
    V(N016870)                =     4.979V  \     4.967V
    V(N02582)                 =     16.39V  \     4.974V
    V(N02699)                 =     36.31V  \     5.592V
    V(N37066)                 =     20.70V  \     20.76V
    V(N37475)                 =  -407.98mV  \  -461.02mV
    V(N02385)                 =     4.979V  \     4.967V
    V(X_U2.6)                 =    1.693MV  \    1.832mV
    V(X_U2.7)                 =    1.693MV  \     5.621V
    V(X_U2.53)                =     19.48V  \     19.30V
    V(X_U2.90)                =    33.86MV  \   589.89mV
    V(X_U2.10)                =     14.14V  \     4.360V
    V(X_U2.13)                =     17.50V  \     4.374V
    V(X_U2.14)                =     10.81V  \     4.374V
    V(X_U2.8)                 =    1.693MV  \     5.621V

  These supply currents failed to converge:

    I(X_U2.egnd)              =   -33.88KA  \  -590.34uA
    I(X_TX1.L1_TX1)           =   -76.29mA  \   296.93mA
    I(X_TX1.L2_TX1)           =     5.278A  \  -300.50uA
    I(V_V1)                   =    76.29mA  \  -296.93mA
    I(X_U2.vb)                =    -5.777A  \    4.191nA
    I(X_U2.vc)                =   -30.53KA  \   476.84nA
    I(X_U2.ve)                =    30.72KA  \   673.94nA
    I(X_U2.vlim)              =    33.86KA  \   589.89uA
    I(X_U2.vlp)               =    10.00uA  \   -39.45pA
    I(X_U2.vln)               =   -10.00uA  \   -40.53pA
    I(X_U2.hlim)              =   -67.73uA  \   -1.180pA

  These devices failed to converge:
    D_ZD      X_U2.dlp  X_U2.fb   X_U2.q1   X_U2.q2   
Discontinuing simulation due to convergence problem



  Last node voltages tried were:

 NODE   VOLTAGE     NODE   VOLTAGE     NODE   VOLTAGE     NODE   VOLTAGE


(N00116)  300.4300 (N00120)  300.3600 (N02385)    4.9794 (N02456)   20.2950     

(N02522)   24.4740 (N02582)   16.3880 (N02699)   36.3130 (N08006)   14.9000     

(N37066)   20.7030 (N37475)    -.4080 (X_U2.6) 1.693E+06 (X_U2.7) 1.693E+06     

(X_U2.8) 1.693E+06 (X_U2.9)    0.0000 (N016870)    4.9794                       

(X_U2.10)   14.1380                   (X_U2.11)   20.2550                       

(X_U2.12)   20.2550                   (X_U2.13)   17.4970                       

(X_U2.14)   10.8070                   (X_U2.53)   19.4820                       

(X_U2.54)    1.0000                   (X_U2.90) 33.86E+06                       

(X_U2.91)   40.0000                   (X_U2.92)  -40.0000                       

(X_U2.99)   10.1480                   

Resuming Simulation with the following settings
ITL4 = 35
ABSTOL = 0.001
VNTOL = 4.47e-005

 NODE   VOLTAGE     NODE   VOLTAGE     NODE   VOLTAGE     NODE   VOLTAGE


(N00116)    0.0000 (N00120)    0.0000 (N02385)     .2615 (N02456)    1.0489     

(N02522)     .2600 (N02582)     .2604 (N02699)     .7968 (N08006)     .7845     

(N37066)     .5245 (N37475)     .5245 (X_U2.6)    -.0273 (X_U2.7)     .9437     

(X_U2.8)     .9437 (X_U2.9)    0.0000 (N016870)     .2615                       

(X_U2.10)    -.3469                   (X_U2.11)    1.0100                       

(X_U2.12)    1.0086                   (X_U2.13)    -.3333                       

(X_U2.14)    -.3328                   (X_U2.53)     .0489                       

(X_U2.54)    1.0000                   (X_U2.90)    2.9375                       

(X_U2.91)   40.0000                   (X_U2.92)  -40.0000                       

(X_U2.99)     .5245                   




    VOLTAGE SOURCE CURRENTS
    NAME         CURRENT

    V_V1         0.000E+00
    X_U2.vb     -2.729E-07
    X_U2.vc     -2.889E-03
    X_U2.ve     -2.212E-12
    X_U2.vlim    2.937E-03
    X_U2.vlp    -3.706E-11
    X_U2.vln    -4.294E-11

    TOTAL POWER DISSIPATION   2.89E-03  WATTS

 NODE   VOLTAGE     NODE   VOLTAGE     NODE   VOLTAGE     NODE   VOLTAGE


(N00116)    0.0000 (N00120)    0.0000 (N02385)     .2615 (N02456)    1.0489     

(N02522)     .2600 (N02582)     .2604 (N02699)     .7968 (N08006)     .7845     

(N37066)     .5245 (N37475)     .5245 (X_U2.6)    -.0273 (X_U2.7)     .9437     

(X_U2.8)     .9437 (X_U2.9)    0.0000 (N016870)     .2615                       

(X_U2.10)    -.3469                   (X_U2.11)    1.0100                       

(X_U2.12)    1.0086                   (X_U2.13)    -.3333                       

(X_U2.14)    -.3328                   (X_U2.53)     .0489                       

(X_U2.54)    1.0000                   (X_U2.90)    2.9375                       

(X_U2.91)   40.0000                   (X_U2.92)  -40.0000                       

(X_U2.99)     .5245                   




    VOLTAGE SOURCE CURRENTS
    NAME         CURRENT

    V_V1         0.000E+00
    X_U2.vb     -2.729E-07
    X_U2.vc     -2.889E-03
    X_U2.ve     -2.207E-12
    X_U2.vlim    2.937E-03
    X_U2.vlp    -3.706E-11
    X_U2.vln    -4.294E-11

    TOTAL POWER DISSIPATION   2.89E-03  WATTS

 NODE   VOLTAGE     NODE   VOLTAGE     NODE   VOLTAGE     NODE   VOLTAGE


(N00116)    0.0000 (N00120)    0.0000 (N02385)     .2614 (N02456)    1.0488     

(N02522)     .2599 (N02582)     .2603 (N02699)     .7967 (N08006)     .7843     

(N37066)     .5244 (N37475)     .5244 (X_U2.6)    -.0273 (X_U2.7)     .9435     

(X_U2.8)     .9435 (X_U2.9)    0.0000 (N016870)     .2614                       

(X_U2.10)    -.3470                   (X_U2.11)    1.0099                       

(X_U2.12)    1.0085                   (X_U2.13)    -.3334                       

(X_U2.14)    -.3329                   (X_U2.53)     .0488                       

(X_U2.54)    1.0000                   (X_U2.90)    2.9365                       

(X_U2.91)   40.0000                   (X_U2.92)  -40.0000                       

(X_U2.99)     .5244                   




    VOLTAGE SOURCE CURRENTS
    NAME         CURRENT

    V_V1         0.000E+00
    X_U2.vb     -2.728E-07
    X_U2.vc     -2.888E-03
    X_U2.ve     -2.214E-12
    X_U2.vlim    2.937E-03
    X_U2.vlp    -3.706E-11
    X_U2.vln    -4.294E-11

    TOTAL POWER DISSIPATION   2.89E-03  WATTS

 NODE   VOLTAGE     NODE   VOLTAGE     NODE   VOLTAGE     NODE   VOLTAGE


(N00116)    0.0000 (N00120)    0.0000 (N02385)     .2617 (N02456)    1.0492     

(N02522)     .2603 (N02582)     .2607 (N02699)     .7971 (N08006)     .7848     

(N37066)     .5246 (N37475)     .5246 (X_U2.6)    -.0273 (X_U2.7)     .9441     

(X_U2.8)     .9441 (X_U2.9)    0.0000 (N016870)     .2617                       

(X_U2.10)    -.3466                   (X_U2.11)    1.0103                       

(X_U2.12)    1.0089                   (X_U2.13)    -.3330                       

(X_U2.14)    -.3325                   (X_U2.53)     .0492                       

(X_U2.54)    1.0000                   (X_U2.90)    2.9401                       

(X_U2.91)   40.0000                   (X_U2.92)  -40.0000                       

(X_U2.99)     .5246                   




    VOLTAGE SOURCE CURRENTS
    NAME         CURRENT

    V_V1         0.000E+00
    X_U2.vb     -2.732E-07
    X_U2.vc     -2.891E-03
    X_U2.ve     -2.272E-12
    X_U2.vlim    2.940E-03
    X_U2.vlp    -3.706E-11
    X_U2.vln    -4.294E-11

    TOTAL POWER DISSIPATION   2.89E-03  WATTS

 NODE   VOLTAGE     NODE   VOLTAGE     NODE   VOLTAGE     NODE   VOLTAGE


(N00116)    0.0000 (N00120)    0.0000 (N02385)     .2615 (N02456)    1.0489     

(N02522)     .2600 (N02582)     .2604 (N02699)     .7968 (N08006)     .7845     

(N37066)     .5245 (N37475)     .5245 (X_U2.6)    -.0273 (X_U2.7)     .9437     

(X_U2.8)     .9437 (X_U2.9)    0.0000 (N016870)     .2615                       

(X_U2.10)    -.3469                   (X_U2.11)    1.0100                       

(X_U2.12)    1.0086                   (X_U2.13)    -.3333                       

(X_U2.14)    -.3328                   (X_U2.53)     .0489                       

(X_U2.54)    1.0000                   (X_U2.90)    2.9375                       

(X_U2.91)   40.0000                   (X_U2.92)  -40.0000                       

(X_U2.99)     .5245                   




    VOLTAGE SOURCE CURRENTS
    NAME         CURRENT

    V_V1         0.000E+00
    X_U2.vb     -2.729E-07
    X_U2.vc     -2.889E-03
    X_U2.ve     -2.208E-12
    X_U2.vlim    2.937E-03
    X_U2.vlp    -3.706E-11
    X_U2.vln    -4.294E-11

    TOTAL POWER DISSIPATION   2.89E-03  WATTS

 NODE   VOLTAGE     NODE   VOLTAGE     NODE   VOLTAGE     NODE   VOLTAGE


(N00116)    0.0000 (N00120)    0.0000 (N02385)     .2615 (N02456)    1.0489     

(N02522)     .2600 (N02582)     .2604 (N02699)     .7968 (N08006)     .7845     

(N37066)     .5245 (N37475)     .5245 (X_U2.6)    -.0273 (X_U2.7)     .9435     

(X_U2.8)     .9435 (X_U2.9)    0.0000 (N016870)     .2615                       

(X_U2.10)    -.3469                   (X_U2.11)    1.0100                       

(X_U2.12)    1.0086                   (X_U2.13)    -.3333                       

(X_U2.14)    -.3328                   (X_U2.53)     .0489                       

(X_U2.54)    1.0000                   (X_U2.90)    2.9349                       

(X_U2.91)   40.0000                   (X_U2.92)  -40.0000                       

(X_U2.99)     .5245                   




    VOLTAGE SOURCE CURRENTS
    NAME         CURRENT

    V_V1         0.000E+00
    X_U2.vb     -2.727E-07
    X_U2.vc     -2.886E-03
    X_U2.ve     -2.210E-12
    X_U2.vlim    2.935E-03
    X_U2.vlp    -3.707E-11
    X_U2.vln    -4.294E-11

    TOTAL POWER DISSIPATION   2.89E-03  WATTS



Mean Deviation =    -.0426
Sigma          =    1.4079E-03

 RUN                    MAX DEVIATION FROM NOMINAL

R_R2 R_R2 R              .0439  (31.20 sigma)  lower  at T =    5.2787E-03
                        ( -10.087% change per 1% change in Model Parameter)

C_CS C_CS C              .0436  (30.99 sigma)  lower  at T =    5.2787E-03
                        ( -10.018% change per 1% change in Model Parameter)

R_R1 R_R1 R              .0429  (30.49 sigma)  lower  at T =    5.2787E-03
                        (  -9.859 % change per 1% change in Model Parameter)

R_RP R_RP R              .0429  (30.44 sigma)  lower  at T =    5.2787E-03
                        (  -9.8416% change per 1% change in Model Parameter)

R_RL R_RL R              .0429  (30.44 sigma)  lower  at T =    5.2787E-03
                        (  -9.8415% change per 1% change in Model Parameter)

R_R3 R_R3 R              .0396  (28.14 sigma)  lower  at T =    5.2787E-03
                        (  -9.0993% change per 1% change in Model Parameter)


**** 05/22/23 10:59:24 ****** PSpice 17.2.0 (March 2016) ****** ID# 0 ********

 ** Profile: "SCHEMATIC1-DCReg"  [ c:\cadence\labhw\projectfinal\voltagereg-pspicefiles\schematic1\dcreg.sim ] 


 ****     INITIAL TRANSIENT SOLUTION       TEMPERATURE =   27.000 DEG C

                      WORST CASE ALL DEVICES

******************************************************************************



 NODE   VOLTAGE     NODE   VOLTAGE     NODE   VOLTAGE     NODE   VOLTAGE


(N00116)    0.0000 (N00120)    0.0000 (N02385)     .2526 (N02456)    1.0401     

(N02522)     .2512 (N02582)     .2516 (N02699)     .7884 (N08006)     .7847     

(N37066)     .5201 (N37475)     .5201 (X_U2.6)    -.0277 (X_U2.7)     .9377     

(X_U2.8)     .9377 (X_U2.9)    0.0000 (N016870)     .2526                       

(X_U2.10)    -.3557                   (X_U2.11)    1.0012                       

(X_U2.12)     .9998                   (X_U2.13)    -.3421                       

(X_U2.14)    -.3416                   (X_U2.53)     .0401                       

(X_U2.54)    1.0000                   (X_U2.90)    2.9853                       

(X_U2.91)   40.0000                   (X_U2.92)  -40.0000                       

(X_U2.99)     .5201                   




    VOLTAGE SOURCE CURRENTS
    NAME         CURRENT

    V_V1         0.000E+00
    X_U2.vb     -2.774E-07
    X_U2.vc     -2.936E-03
    X_U2.ve     -2.969E-12
    X_U2.vlim    2.985E-03
    X_U2.vlp    -3.702E-11
    X_U2.vln    -4.299E-11

    TOTAL POWER DISSIPATION   2.94E-03  WATTS


**** 05/22/23 10:59:24 ****** PSpice 17.2.0 (March 2016) ****** ID# 0 ********

 ** Profile: "SCHEMATIC1-DCReg"  [ c:\cadence\labhw\projectfinal\voltagereg-pspicefiles\schematic1\dcreg.sim ] 


 ****     UPDATED MODEL PARAMETERS         TEMPERATURE =   27.000 DEG C

                      WORST CASE ALL DEVICES

******************************************************************************



Device       MODEL        PARAMETER    NEW VALUE    
C_Cs         C_Cs         C                .95          (Decreased)  
R_R1         R_R1         R                .95          (Decreased)  
R_R2         R_R2         R                .95          (Decreased)  
R_R3         R_R3         R                .95          (Decreased)  
R_Rp         R_Rp         R                .99          (Decreased)  
R_Rl         R_Rl         R                .95          (Decreased)  
    

**** 05/22/23 10:59:24 ****** PSpice 17.2.0 (March 2016) ****** ID# 0 ********

 ** Profile: "SCHEMATIC1-DCReg"  [ c:\cadence\labhw\projectfinal\voltagereg-pspicefiles\schematic1\dcreg.sim ] 


 ****     SORTED DEVIATIONS OF V(N02522)   TEMPERATURE =   27.000 DEG C

                      WORST CASE SUMMARY

******************************************************************************





Mean Deviation =    -.1663
Sigma          =    0     

 RUN                    MAX DEVIATION FROM NOMINAL

WORST CASE ALL DEVICES
                         .1663  lower  at T =     .0565
                        (  96.651% of Nominal)



          JOB CONCLUDED
 AutoConverge Simulator Options
 ITL1 = 150
 ITL2 = 20
 ITL4 = 10
 RELTOL = 0.001
 ABSTOL = 0.001
 VNTOL = 4.46684e-005
 PIVTOL = 1e-013

**** 05/22/23 10:59:24 ****** PSpice 17.2.0 (March 2016) ****** ID# 0 ********

 ** Profile: "SCHEMATIC1-DCReg"  [ c:\cadence\labhw\projectfinal\voltagereg-pspicefiles\schematic1\dcreg.sim ] 


 ****     JOB STATISTICS SUMMARY


******************************************************************************



  Total job time (using Solver 1)   =        4.06
